<?xml version="1.0" encoding="UTF-8"?>
<!-- generated on 2019-05-06 16:53:23.761753 by $Id$
  options: -n /home/klischat/GIT_REPOS/sumo-interface/scenarios/tri_junction/tri_junction.net.xml -o /home/klischat/GIT_REPOS/sumo-interface/sumo2cr/maps/../../scenarios/tri_junction/tri_junction.trips.xml -r /home/klischat/GIT_REPOS/sumo-interface/sumo2cr/maps/../../scenarios/tri_junction/tri_junction.rou.xml -b 0 -e 20 -p 0.6666666666666666 <doubleminus>allow-fringe <doubleminus>trip-attributes=departLane="free" departSpeed="random" departPos="base" <doubleminus>period 0.2
-->
<routes xmlns:xsi="http://www.w3.org/2001/XMLSchema-instance" xsi:noNamespaceSchemaLocation="http://sumo.dlr.de/xsd/routes_file.xsd">
    <trip id="0" depart="0.00" from="-210015952.219" to="-210015952.219" departLane="free" departSpeed="random" departPos="base"/>
    <trip id="1" depart="0.20" from="-210015962" to="-4318974" departLane="free" departSpeed="random" departPos="base"/>
    <trip id="2" depart="0.40" from="210015952" to="-210015952.219" departLane="free" departSpeed="random" departPos="base"/>
    <trip id="3" depart="0.60" from="4318974.270" to="-210015965" departLane="free" departSpeed="random" departPos="base"/>
    <trip id="4" depart="0.80" from="210015952" to="210015954" departLane="free" departSpeed="random" departPos="base"/>
    <trip id="5" depart="1.00" from="-210015954" to="-210015952.219" departLane="free" departSpeed="random" departPos="base"/>
    <trip id="6" depart="1.20" from="210015952" to="210015962" departLane="free" departSpeed="random" departPos="base"/>
    <trip id="7" depart="1.40" from="210015965" to="-210015962" departLane="free" departSpeed="random" departPos="base"/>
    <trip id="8" depart="1.60" from="-210015965" to="4318974.270" departLane="free" departSpeed="random" departPos="base"/>
    <trip id="9" depart="1.80" from="4318974.270" to="220864519" departLane="free" departSpeed="random" departPos="base"/>
    <trip id="10" depart="2.00" from="-4318974" to="-210015954" departLane="free" departSpeed="random" departPos="base"/>
    <trip id="11" depart="2.20" from="210015954" to="210015952" departLane="free" departSpeed="random" departPos="base"/>
    <trip id="12" depart="2.40" from="210015965" to="210015962" departLane="free" departSpeed="random" departPos="base"/>
    <trip id="13" depart="2.60" from="4318974.270" to="-220864519" departLane="free" departSpeed="random" departPos="base"/>
    <trip id="14" depart="2.80" from="-220864519" to="-210015952.219" departLane="free" departSpeed="random" departPos="base"/>
    <trip id="15" depart="3.00" from="-210015952.219" to="-4318974" departLane="free" departSpeed="random" departPos="base"/>
    <trip id="16" depart="3.20" from="4318974.270" to="220864519" departLane="free" departSpeed="random" departPos="base"/>
    <trip id="17" depart="3.40" from="-210015952.219" to="-210015965" departLane="free" departSpeed="random" departPos="base"/>
    <trip id="18" depart="3.60" from="220864519" to="210015952" departLane="free" departSpeed="random" departPos="base"/>
    <trip id="19" depart="3.80" from="210015962" to="210015952" departLane="free" departSpeed="random" departPos="base"/>
    <trip id="20" depart="4.00" from="220864519" to="-220864519" departLane="free" departSpeed="random" departPos="base"/>
    <trip id="21" depart="4.20" from="-210015952.219" to="-210015962" departLane="free" departSpeed="random" departPos="base"/>
    <trip id="22" depart="4.40" from="-4318974" to="-210015952.219" departLane="free" departSpeed="random" departPos="base"/>
    <trip id="23" depart="4.60" from="210015952" to="4318974.270" departLane="free" departSpeed="random" departPos="base"/>
    <trip id="24" depart="4.80" from="-220864519" to="220864519" departLane="free" departSpeed="random" departPos="base"/>
    <trip id="25" depart="5.00" from="-210015954" to="-210015954" departLane="free" departSpeed="random" departPos="base"/>
    <trip id="26" depart="5.20" from="-210015965" to="4318974.270" departLane="free" departSpeed="random" departPos="base"/>
    <trip id="27" depart="5.40" from="-220864519" to="210015952" departLane="free" departSpeed="random" departPos="base"/>
    <trip id="28" depart="5.60" from="210015952" to="-210015965" departLane="free" departSpeed="random" departPos="base"/>
    <trip id="29" depart="5.80" from="210015965" to="-210015954" departLane="free" departSpeed="random" departPos="base"/>
    <trip id="30" depart="6.00" from="-210015965" to="-4318974" departLane="free" departSpeed="random" departPos="base"/>
    <trip id="31" depart="6.20" from="-220864519" to="210015954" departLane="free" departSpeed="random" departPos="base"/>
    <trip id="32" depart="6.40" from="210015965" to="210015962" departLane="free" departSpeed="random" departPos="base"/>
    <trip id="33" depart="6.60" from="-210015965" to="-210015954" departLane="free" departSpeed="random" departPos="base"/>
    <trip id="34" depart="6.80" from="-210015965" to="-220864519" departLane="free" departSpeed="random" departPos="base"/>
    <trip id="35" depart="7.00" from="210015965" to="210015952" departLane="free" departSpeed="random" departPos="base"/>
    <trip id="36" depart="7.20" from="-210015954" to="4318974.270" departLane="free" departSpeed="random" departPos="base"/>
    <trip id="37" depart="7.40" from="-4318974" to="4318974.270" departLane="free" departSpeed="random" departPos="base"/>
    <trip id="38" depart="7.60" from="4318974.270" to="-210015962" departLane="free" departSpeed="random" departPos="base"/>
    <trip id="39" depart="7.80" from="-4318974" to="-210015954" departLane="free" departSpeed="random" departPos="base"/>
    <trip id="40" depart="8.00" from="220864519" to="-220864519" departLane="free" departSpeed="random" departPos="base"/>
    <trip id="41" depart="8.20" from="210015965" to="-210015954" departLane="free" departSpeed="random" departPos="base"/>
    <trip id="42" depart="8.40" from="210015965" to="-210015952.219" departLane="free" departSpeed="random" departPos="base"/>
    <trip id="43" depart="8.60" from="210015952" to="-4318974" departLane="free" departSpeed="random" departPos="base"/>
    <trip id="44" depart="8.80" from="210015962" to="210015962" departLane="free" departSpeed="random" departPos="base"/>
    <trip id="45" depart="9.00" from="-210015954" to="-210015952.219" departLane="free" departSpeed="random" departPos="base"/>
    <trip id="46" depart="9.20" from="-220864519" to="-4318974" departLane="free" departSpeed="random" departPos="base"/>
    <trip id="47" depart="9.40" from="210015962" to="210015965" departLane="free" departSpeed="random" departPos="base"/>
    <trip id="48" depart="9.60" from="4318974.270" to="-210015965" departLane="free" departSpeed="random" departPos="base"/>
    <trip id="49" depart="9.80" from="-4318974" to="-210015954" departLane="free" departSpeed="random" departPos="base"/>
    <trip id="50" depart="10.00" from="210015952" to="4318974.270" departLane="free" departSpeed="random" departPos="base"/>
    <trip id="51" depart="10.20" from="210015965" to="-210015962" departLane="free" departSpeed="random" departPos="base"/>
    <trip id="52" depart="10.40" from="220864519" to="-210015954" departLane="free" departSpeed="random" departPos="base"/>
    <trip id="53" depart="10.60" from="-220864519" to="210015962" departLane="free" departSpeed="random" departPos="base"/>
    <trip id="54" depart="10.80" from="-220864519" to="-220864519" departLane="free" departSpeed="random" departPos="base"/>
    <trip id="55" depart="11.00" from="-210015962" to="220864519" departLane="free" departSpeed="random" departPos="base"/>
    <trip id="56" depart="11.20" from="-220864519" to="-210015952.219" departLane="free" departSpeed="random" departPos="base"/>
    <trip id="57" depart="11.40" from="4318974.270" to="210015965" departLane="free" departSpeed="random" departPos="base"/>
    <trip id="58" depart="11.60" from="210015965" to="-210015962" departLane="free" departSpeed="random" departPos="base"/>
    <trip id="59" depart="11.80" from="210015952" to="4318974.270" departLane="free" departSpeed="random" departPos="base"/>
    <trip id="60" depart="12.00" from="-210015965" to="210015954" departLane="free" departSpeed="random" departPos="base"/>
    <trip id="61" depart="12.20" from="210015952" to="210015954" departLane="free" departSpeed="random" departPos="base"/>
    <trip id="62" depart="12.40" from="-220864519" to="-220864519" departLane="free" departSpeed="random" departPos="base"/>
    <trip id="63" depart="12.60" from="210015962" to="-210015965" departLane="free" departSpeed="random" departPos="base"/>
    <trip id="64" depart="12.80" from="210015954" to="-210015954" departLane="free" departSpeed="random" departPos="base"/>
    <trip id="65" depart="13.00" from="-210015962" to="210015952" departLane="free" departSpeed="random" departPos="base"/>
    <trip id="66" depart="13.20" from="210015962" to="-4318974" departLane="free" departSpeed="random" departPos="base"/>
    <trip id="67" depart="13.40" from="210015952" to="-210015965" departLane="free" departSpeed="random" departPos="base"/>
    <trip id="68" depart="13.60" from="210015965" to="-210015965" departLane="free" departSpeed="random" departPos="base"/>
    <trip id="69" depart="13.80" from="210015962" to="4318974.270" departLane="free" departSpeed="random" departPos="base"/>
    <trip id="70" depart="14.00" from="220864519" to="-210015952.219" departLane="free" departSpeed="random" departPos="base"/>
    <trip id="71" depart="14.20" from="210015965" to="4318974.270" departLane="free" departSpeed="random" departPos="base"/>
    <trip id="72" depart="14.40" from="4318974.270" to="210015962" departLane="free" departSpeed="random" departPos="base"/>
    <trip id="73" depart="14.60" from="210015954" to="-220864519" departLane="free" departSpeed="random" departPos="base"/>
    <trip id="74" depart="14.80" from="-210015962" to="-210015962" departLane="free" departSpeed="random" departPos="base"/>
    <trip id="75" depart="15.00" from="4318974.270" to="-210015952.219" departLane="free" departSpeed="random" departPos="base"/>
    <trip id="76" depart="15.20" from="220864519" to="210015952" departLane="free" departSpeed="random" departPos="base"/>
    <trip id="77" depart="15.40" from="-210015965" to="-210015952.219" departLane="free" departSpeed="random" departPos="base"/>
    <trip id="78" depart="15.60" from="-210015965" to="-210015962" departLane="free" departSpeed="random" departPos="base"/>
    <trip id="79" depart="15.80" from="210015952" to="-220864519" departLane="free" departSpeed="random" departPos="base"/>
    <trip id="80" depart="16.00" from="-210015965" to="-210015965" departLane="free" departSpeed="random" departPos="base"/>
    <trip id="81" depart="16.20" from="-210015954" to="210015952" departLane="free" departSpeed="random" departPos="base"/>
    <trip id="82" depart="16.40" from="-4318974" to="210015952" departLane="free" departSpeed="random" departPos="base"/>
    <trip id="83" depart="16.60" from="-210015952.219" to="-210015952.219" departLane="free" departSpeed="random" departPos="base"/>
    <trip id="84" depart="16.80" from="210015952" to="220864519" departLane="free" departSpeed="random" departPos="base"/>
    <trip id="85" depart="17.00" from="-210015954" to="210015962" departLane="free" departSpeed="random" departPos="base"/>
    <trip id="86" depart="17.20" from="220864519" to="-4318974" departLane="free" departSpeed="random" departPos="base"/>
    <trip id="87" depart="17.40" from="-210015962" to="-220864519" departLane="free" departSpeed="random" departPos="base"/>
    <trip id="88" depart="17.60" from="-210015954" to="-220864519" departLane="free" departSpeed="random" departPos="base"/>
    <trip id="89" depart="17.80" from="-220864519" to="210015962" departLane="free" departSpeed="random" departPos="base"/>
    <trip id="90" depart="18.00" from="-210015962" to="210015962" departLane="free" departSpeed="random" departPos="base"/>
    <trip id="91" depart="18.20" from="-210015954" to="210015954" departLane="free" departSpeed="random" departPos="base"/>
    <trip id="92" depart="18.40" from="-210015965" to="210015965" departLane="free" departSpeed="random" departPos="base"/>
    <trip id="93" depart="18.60" from="-210015954" to="210015965" departLane="free" departSpeed="random" departPos="base"/>
    <trip id="94" depart="18.80" from="-210015965" to="210015965" departLane="free" departSpeed="random" departPos="base"/>
    <trip id="95" depart="19.00" from="-210015954" to="220864519" departLane="free" departSpeed="random" departPos="base"/>
    <trip id="96" depart="19.20" from="210015952" to="210015954" departLane="free" departSpeed="random" departPos="base"/>
    <trip id="97" depart="19.40" from="-210015965" to="210015962" departLane="free" departSpeed="random" departPos="base"/>
    <trip id="98" depart="19.60" from="210015952" to="210015965" departLane="free" departSpeed="random" departPos="base"/>
    <trip id="99" depart="19.80" from="210015952" to="-210015952.219" departLane="free" departSpeed="random" departPos="base"/>
    <trip id="100" depart="20.00" from="210015965" to="210015965" departLane="free" departSpeed="random" departPos="base"/>
</routes>
