<?xml version="1.0" ?>
<configuration xmlns:xsi="http://www.w3.org/2001/XMLSchema-instance" xsi:noNamespaceSchemaLocation="http://sumo.dlr.de/xsd/sumoConfiguration.xsd">
	<input>
		<net-file value="tri_junction.net.xml"/>
		<route-files value="tri_junction.rou.xml"/>
		<additional-files value=""/>
	</input>
	<time>
		<begin value="0"/>
		<step-length value="0.1"/>
	</time>
	<report>
		<verbose value="true"/>
		<no-step-log value="true"/>
	</report>
	<processing>
		<time-to-teleport value="-1"/>
		<lanechange-output value="output_lanechange.txt"/>
		<lanechange.duration value="15"/>
		<lanechange.smooth-change value="1"/>
	</processing>
</configuration>
