<?xml version="1.0" encoding="UTF-8"?>

<!-- generated on Tue Apr  9 09:42:51 2019 by Eclipse SUMO netconvert Version 1.1.0
<configuration xmlns:xsi="http://www.w3.org/2001/XMLSchema-instance" xsi:noNamespaceSchemaLocation="http://sumo.dlr.de/xsd/netconvertConfiguration.xsd">

    <input>
        <osm-files value="a9_half.osm"/>
    </input>

    <output>
        <output-file value="a9.net.xml"/>
    </output>

    <projection>
        <proj.utm value="true"/>
    </projection>

</configuration>
-->

<net version="1.1" junctionCornerDetail="5" limitTurnSpeed="5.50" xmlns:xsi="http://www.w3.org/2001/XMLSchema-instance" xsi:noNamespaceSchemaLocation="http://sumo.dlr.de/xsd/net_file.xsd">

    <location netOffset="-691600.34,-5363834.90" convBoundary="0.00,0.00,225.33,2328.92" origBoundary="11.589690,48.398466,11.591668,48.419466" projParameter="+proj=utm +zone=32 +ellps=WGS84 +datum=WGS84 +units=m +no_defs"/>

    <type id="highway.bridleway" priority="1" numLanes="1" speed="2.78" allow="pedestrian" oneway="1" width="2.00"/>
    <type id="highway.bus_guideway" priority="1" numLanes="1" speed="27.78" allow="bus" oneway="1"/>
    <type id="highway.cycleway" priority="1" numLanes="1" speed="8.33" allow="bicycle" oneway="0" width="1.00"/>
    <type id="highway.footway" priority="1" numLanes="1" speed="2.78" allow="pedestrian" oneway="1" width="2.00"/>
    <type id="highway.ford" priority="1" numLanes="1" speed="2.78" allow="army" oneway="0"/>
    <type id="highway.living_street" priority="3" numLanes="1" speed="2.78" disallow="tram rail_urban rail rail_electric ship" oneway="0"/>
    <type id="highway.motorway" priority="13" numLanes="2" speed="44.44" allow="private emergency authority army vip passenger hov taxi bus coach delivery truck trailer motorcycle evehicle custom1 custom2" oneway="1"/>
    <type id="highway.motorway_link" priority="12" numLanes="1" speed="22.22" allow="private emergency authority army vip passenger hov taxi bus coach delivery truck trailer motorcycle evehicle custom1 custom2" oneway="1"/>
    <type id="highway.path" priority="1" numLanes="1" speed="2.78" allow="bicycle pedestrian" oneway="1" width="2.00"/>
    <type id="highway.pedestrian" priority="1" numLanes="1" speed="2.78" allow="pedestrian" oneway="1" width="2.00"/>
    <type id="highway.primary" priority="9" numLanes="2" speed="27.78" disallow="tram rail_urban rail rail_electric ship" oneway="0"/>
    <type id="highway.primary_link" priority="8" numLanes="1" speed="22.22" disallow="tram rail_urban rail rail_electric ship" oneway="0"/>
    <type id="highway.raceway" priority="14" numLanes="2" speed="83.33" allow="vip" oneway="0"/>
    <type id="highway.residential" priority="4" numLanes="1" speed="13.89" disallow="tram rail_urban rail rail_electric ship" oneway="0"/>
    <type id="highway.secondary" priority="7" numLanes="2" speed="27.78" disallow="tram rail_urban rail rail_electric ship" oneway="0"/>
    <type id="highway.secondary_link" priority="6" numLanes="1" speed="22.22" disallow="tram rail_urban rail rail_electric ship" oneway="0"/>
    <type id="highway.service" priority="2" numLanes="1" speed="5.56" allow="delivery bicycle pedestrian" oneway="0"/>
    <type id="highway.stairs" priority="1" numLanes="1" speed="1.39" allow="pedestrian" oneway="1" width="2.00"/>
    <type id="highway.step" priority="1" numLanes="1" speed="1.39" allow="pedestrian" oneway="1" width="2.00"/>
    <type id="highway.steps" priority="1" numLanes="1" speed="1.39" allow="pedestrian" oneway="1" width="2.00"/>
    <type id="highway.tertiary" priority="6" numLanes="1" speed="22.22" disallow="tram rail_urban rail rail_electric ship" oneway="0"/>
    <type id="highway.tertiary_link" priority="5" numLanes="1" speed="22.22" disallow="tram rail_urban rail rail_electric ship" oneway="0"/>
    <type id="highway.track" priority="1" numLanes="1" speed="5.56" disallow="tram rail_urban rail rail_electric ship" oneway="0"/>
    <type id="highway.trunk" priority="11" numLanes="2" speed="27.78" disallow="tram rail_urban rail rail_electric bicycle pedestrian ship" oneway="0"/>
    <type id="highway.trunk_link" priority="10" numLanes="1" speed="22.22" disallow="tram rail_urban rail rail_electric bicycle pedestrian ship" oneway="0"/>
    <type id="highway.unclassified" priority="5" numLanes="1" speed="13.89" disallow="tram rail_urban rail rail_electric ship" oneway="0"/>
    <type id="highway.unsurfaced" priority="1" numLanes="1" speed="8.33" disallow="tram rail_urban rail rail_electric ship" oneway="0"/>
    <type id="railway.light_rail" priority="15" numLanes="1" speed="27.78" allow="rail_urban" oneway="1"/>
    <type id="railway.preserved" priority="15" numLanes="1" speed="27.78" allow="rail" oneway="1"/>
    <type id="railway.rail" priority="15" numLanes="1" speed="83.33" allow="rail rail_electric" oneway="1"/>
    <type id="railway.subway" priority="15" numLanes="1" speed="27.78" allow="rail_urban" oneway="1"/>
    <type id="railway.tram" priority="15" numLanes="1" speed="13.89" allow="tram" oneway="1"/>

    <edge id="135586672" from="285950480" to="2469933641" priority="13" type="highway.motorway" spreadType="center" shape="225.33,0.00 197.88,71.39 183.54,107.76 168.89,146.90 141.29,240.08 127.21,292.11 115.01,347.57 103.22,402.06 93.47,455.43 76.70,572.92 70.47,636.13 68.01,693.26 40.85,1387.15 15.62,1875.01 3.14,2259.73 0.00,2328.92">
        <lane id="135586672_0" index="0" allow="private emergency authority army vip passenger hov taxi bus coach delivery truck trailer motorcycle evehicle custom1 custom2" speed="83.33" length="2351.74" shape="229.81,1.72 202.35,73.14 188.02,109.48 173.44,148.42 145.91,241.38 131.87,293.25 119.70,348.59 107.93,403.00 98.21,456.20 81.46,573.49 75.26,636.47 72.80,693.46 45.65,1387.37 20.42,1875.21 7.94,2259.91 4.80,2329.14"/>
        <lane id="135586672_1" index="1" allow="private emergency authority army vip passenger hov taxi bus coach delivery truck trailer motorcycle evehicle custom1 custom2" speed="83.33" length="2351.74" shape="226.83,0.57 199.37,71.98 185.03,108.34 170.41,147.41 142.83,240.51 128.77,292.49 116.57,347.91 104.79,402.37 95.05,455.69 78.28,573.11 72.06,636.24 69.61,693.32 42.45,1387.22 17.22,1875.07 4.74,2259.79 1.60,2328.99"/>
        <lane id="135586672_2" index="2" allow="private emergency authority army vip passenger hov taxi bus coach delivery truck trailer motorcycle evehicle custom1 custom2" speed="83.33" length="2351.74" shape="223.84,-0.57 196.39,70.81 182.04,107.19 167.37,146.39 139.75,239.64 125.66,291.72 113.44,347.23 101.65,401.75 91.89,455.17 75.11,572.72 68.87,636.02 66.41,693.19 39.26,1387.08 14.02,1874.94 1.54,2259.66 -1.60,2328.85"/>
        <lane id="135586672_3" index="3" allow="private emergency authority army vip passenger hov taxi bus coach delivery truck trailer motorcycle evehicle custom1 custom2" speed="83.33" length="2351.74" shape="220.85,-1.72 193.41,69.65 179.05,106.04 164.33,145.37 136.67,238.77 122.55,290.96 110.32,346.55 98.51,401.12 88.73,454.66 71.93,572.34 65.68,635.79 63.21,693.06 36.06,1386.93 10.83,1874.80 -1.66,2259.54 -4.80,2328.70"/>
    </edge>

    <junction id="2469933641" type="dead_end" x="0.00" y="2328.92" incLanes="135586672_0 135586672_1 135586672_2 135586672_3" intLanes="" shape="6.39,2329.21 -6.39,2328.63"/>
    <junction id="285950480" type="dead_end" x="225.33" y="0.00" incLanes="" intLanes="" shape="219.36,-2.30 231.31,2.30"/>

</net>
